sad/pglib_opf_case300_ieee__sad.m
%%%%%%%%%%%%%%%%%%%%%%%%%%%%%%%%%%%%%%%%%%%%%%%%%%%%%%%%%%%%%%%%%%%%%%%%%%%
%%%%                                                                  %%%%%
%%%%    IEEE PES Power Grid Library - Optimal Power Flow - v17.07     %%%%%
%%%%          (https://github.com/power-grid-lib/pglib-opf)           %%%%%
%%%%             Benchmark Group - Small Angle Difference             %%%%%
%%%%                         24 - July - 2017                         %%%%%
%%%%                                                                  %%%%%
%%%%%%%%%%%%%%%%%%%%%%%%%%%%%%%%%%%%%%%%%%%%%%%%%%%%%%%%%%%%%%%%%%%%%%%%%%%
function mpc = pglib_opf_case300_ieee__sad
mpc.version = '2';
mpc.baseMVA = 100.0;

%% bus data
%	bus_i	type	Pd	Qd	Gs	Bs	area	Vm	Va	baseKV	zone	Vmax	Vmin
mpc.bus = [
	1	 1	 90.0	 49.0	 0.0	 0.0	 1	    1.00000	    0.00000	 115.0	 1	    1.06000	    0.94000;
	2	 1	 56.0	 15.0	 0.0	 0.0	 1	    1.00000	    0.00000	 115.0	 1	    1.06000	    0.94000;
	3	 1	 20.0	 0.0	 0.0	 0.0	 1	    1.00000	    0.00000	 230.0	 1	    1.06000	    0.94000;
	4	 1	 0.0	 0.0	 0.0	 0.0	 1	    1.00000	    0.00000	 345.0	 1	    1.06000	    0.94000;
	5	 1	 353.0	 130.0	 0.0	 0.0	 1	    1.00000	    0.00000	 115.0	 1	    1.06000	    0.94000;
	6	 1	 120.0	 41.0	 0.0	 0.0	 1	    1.00000	    0.00000	 115.0	 1	    1.06000	    0.94000;
	7	 1	 0.0	 0.0	 0.0	 0.0	 1	    1.00000	    0.00000	 230.0	 1	    1.06000	    0.94000;
	8	 2	 63.0	 14.0	 0.0	 0.0	 1	    1.00000	    0.00000	 115.0	 1	    1.06000	    0.94000;
	9	 1	 96.0	 43.0	 0.0	 0.0	 1	    1.00000	    0.00000	 115.0	 1	    1.06000	    0.94000;
	10	 2	 153.0	 33.0	 0.0	 0.0	 1	    1.00000	    0.00000	 230.0	 1	    1.06000	    0.94000;
	11	 1	 83.0	 21.0	 0.0	 0.0	 1	    1.00000	    0.00000	 115.0	 1	    1.06000	    0.94000;
	12	 1	 0.0	 0.0	 0.0	 0.0	 1	    1.00000	    0.00000	 230.0	 1	    1.06000	    0.94000;
	13	 1	 58.0	 10.0	 0.0	 0.0	 1	    1.00000	    0.00000	 115.0	 1	    1.06000	    0.94000;
	14	 1	 160.0	 60.0	 0.0	 0.0	 1	    1.00000	    0.00000	 115.0	 1	    1.06000	    0.94000;
	15	 1	 126.7	 23.0	 0.0	 0.0	 1	    1.00000	    0.00000	 115.0	 1	    1.06000	    0.94000;
	16	 1	 0.0	 0.0	 0.0	 0.0	 1	    1.00000	    0.00000	 345.0	 1	    1.06000	    0.94000;
	17	 1	 561.0	 220.0	 0.0	 0.0	 1	    1.00000	    0.00000	 115.0	 1	    1.06000	    0.94000;
	19	 1	 0.0	 0.0	 0.0	 0.0	 1	    1.00000	    0.00000	 230.0	 1	    1.06000	    0.94000;
	20	 2	 605.0	 120.0	 0.0	 0.0	 1	    1.00000	    0.00000	 115.0	 1	    1.06000	    0.94000;
	21	 1	 77.0	 1.0	 0.0	 0.0	 1	    1.00000	    0.00000	 230.0	 1	    1.06000	    0.94000;
	22	 1	 81.0	 23.0	 0.0	 0.0	 1	    1.00000	    0.00000	 115.0	 1	    1.06000	    0.94000;
	23	 1	 21.0	 7.0	 0.0	 0.0	 1	    1.00000	    0.00000	 115.0	 1	    1.06000	    0.94000;
	24	 1	 0.0	 0.0	 0.0	 0.0	 1	    1.00000	    0.00000	 230.0	 1	    1.06000	    0.94000;
	25	 1	 45.0	 12.0	 0.0	 0.0	 1	    1.00000	    0.00000	 115.0	 1	    1.06000	    0.94000;
	26	 1	 28.0	 9.0	 0.0	 0.0	 1	    1.00000	    0.00000	 115.0	 1	    1.06000	    0.94000;
	27	 1	 69.0	 13.0	 0.0	 0.0	 1	    1.00000	    0.00000	 115.0	 1	    1.06000	    0.94000;
	33	 1	 55.0	 6.0	 0.0	 0.0	 1	    1.00000	    0.00000	 115.0	 1	    1.06000	    0.94000;
	34	 1	 0.0	 0.0	 0.0	 0.0	 1	    1.00000	    0.00000	 345.0	 1	    1.06000	    0.94000;
	35	 1	 0.0	 0.0	 0.0	 0.0	 1	    1.00000	    0.00000	 115.0	 1	    1.06000	    0.94000;
	36	 1	 0.0	 0.0	 0.0	 0.0	 1	    1.00000	    0.00000	 230.0	 1	    1.06000	    0.94000;
	37	 1	 85.0	 32.0	 0.0	 0.0	 1	    1.00000	    0.00000	 115.0	 1	    1.06000	    0.94000;
	38	 1	 155.0	 18.0	 0.0	 0.0	 1	    1.00000	    0.00000	 115.0	 1	    1.06000	    0.94000;
	39	 1	 0.0	 0.0	 0.0	 0.0	 1	    1.00000	    0.00000	 345.0	 1	    1.06000	    0.94000;
	40	 1	 46.0	 -21.0	 0.0	 0.0	 1	    1.00000	    0.00000	 115.0	 1	    1.06000	    0.94000;
	41	 1	 86.0	 0.0	 0.0	 0.0	 1	    1.00000	    0.00000	 115.0	 1	    1.06000	    0.94000;
	42	 1	 0.0	 0.0	 0.0	 0.0	 1	    1.00000	    0.00000	 345.0	 1	    1.06000	    0.94000;
	43	 1	 39.0	 9.0	 0.0	 0.0	 1	    1.00000	    0.00000	 115.0	 1	    1.06000	    0.94000;
	44	 1	 195.0	 29.0	 0.0	 0.0	 1	    1.00000	    0.00000	 115.0	 1	    1.06000	    0.94000;
	45	 1	 0.0	 0.0	 0.0	 0.0	 1	    1.00000	    0.00000	 230.0	 1	    1.06000	    0.94000;
	46	 1	 0.0	 0.0	 0.0	 0.0	 1	    1.00000	    0.00000	 345.0	 1	    1.06000	    0.94000;
	47	 1	 58.0	 11.8	 0.0	 0.0	 1	    1.00000	    0.00000	 115.0	 1	    1.06000	    0.94000;
	48	 1	 41.0	 19.0	 0.0	 0.0	 1	    1.00000	    0.00000	 115.0	 1	    1.06000	    0.94000;
	49	 1	 92.0	 26.0	 0.0	 0.0	 1	    1.00000	    0.00000	 115.0	 1	    1.06000	    0.94000;
	51	 1	 -5.0	 5.0	 0.0	 0.0	 1	    1.00000	    0.00000	 115.0	 1	    1.06000	    0.94000;
	52	 1	 61.0	 28.0	 0.0	 0.0	 1	    1.00000	    0.00000	 115.0	 1	    1.06000	    0.94000;
	53	 1	 69.0	 3.0	 0.0	 0.0	 1	    1.00000	    0.00000	 115.0	 1	    1.06000	    0.94000;
	54	 1	 10.0	 1.0	 0.0	 0.0	 1	    1.00000	    0.00000	 115.0	 1	    1.06000	    0.94000;
	55	 1	 22.0	 10.0	 0.0	 0.0	 1	    1.00000	    0.00000	 115.0	 1	    1.06000	    0.94000;
	57	 1	 98.0	 20.0	 0.0	 0.0	 1	    1.00000	    0.00000	 115.0	 1	    1.06000	    0.94000;
	58	 1	 14.0	 1.0	 0.0	 0.0	 1	    1.00000	    0.00000	 115.0	 1	    1.06000	    0.94000;
	59	 1	 218.0	 106.0	 0.0	 0.0	 1	    1.00000	    0.00000	 115.0	 1	    1.06000	    0.94000;
	60	 1	 0.0	 0.0	 0.0	 0.0	 1	    1.00000	    0.00000	 230.0	 1	    1.06000	    0.94000;
	61	 1	 227.0	 110.0	 0.0	 0.0	 1	    1.00000	    0.00000	 115.0	 1	    1.06000	    0.94000;
	62	 1	 0.0	 0.0	 0.0	 0.0	 1	    1.00000	    0.00000	 230.0	 1	    1.06000	    0.94000;
	63	 2	 70.0	 30.0	 0.0	 0.0	 1	    1.00000	    0.00000	 115.0	 1	    1.06000	    0.94000;
	64	 1	 0.0	 0.0	 0.0	 0.0	 1	    1.00000	    0.00000	 230.0	 1	    1.06000	    0.94000;
	69	 1	 0.0	 0.0	 0.0	 0.0	 1	    1.00000	    0.00000	 115.0	 1	    1.06000	    0.94000;
	70	 1	 56.0	 20.0	 0.0	 0.0	 1	    1.00000	    0.00000	 115.0	 1	    1.06000	    0.94000;
	71	 1	 116.0	 38.0	 0.0	 0.0	 1	    1.00000	    0.00000	 115.0	 1	    1.06000	    0.94000;
	72	 1	 57.0	 19.0	 0.0	 0.0	 1	    1.00000	    0.00000	 115.0	 1	    1.06000	    0.94000;
	73	 1	 224.0	 71.0	 0.0	 0.0	 1	    1.00000	    0.00000	 115.0	 1	    1.06000	    0.94000;
	74	 1	 0.0	 0.0	 0.0	 0.0	 1	    1.00000	    0.00000	 230.0	 1	    1.06000	    0.94000;
	76	 2	 208.0	 107.0	 0.0	 0.0	 1	    1.00000	    0.00000	 115.0	 1	    1.06000	    0.94000;
	77	 1	 74.0	 28.0	 0.0	 0.0	 1	    1.00000	    0.00000	 115.0	 1	    1.06000	    0.94000;
	78	 1	 0.0	 0.0	 0.0	 0.0	 1	    1.00000	    0.00000	 115.0	 1	    1.06000	    0.94000;
	79	 1	 48.0	 14.0	 0.0	 0.0	 1	    1.00000	    0.00000	 115.0	 1	    1.06000	    0.94000;
	80	 1	 28.0	 7.0	 0.0	 0.0	 1	    1.00000	    0.00000	 115.0	 1	    1.06000	    0.94000;
	81	 1	 0.0	 0.0	 0.0	 0.0	 1	    1.00000	    0.00000	 345.0	 1	    1.06000	    0.94000;
	84	 2	 37.0	 13.0	 0.0	 0.0	 1	    1.00000	    0.00000	 115.0	 1	    1.06000	    0.94000;
	85	 1	 0.0	 0.0	 0.0	 0.0	 1	    1.00000	    0.00000	 230.0	 1	    1.06000	    0.94000;
	86	 1	 0.0	 0.0	 0.0	 0.0	 1	    1.00000	    0.00000	 230.0	 1	    1.06000	    0.94000;
	87	 1	 0.0	 0.0	 0.0	 0.0	 1	    1.00000	    0.00000	 230.0	 1	    1.06000	    0.94000;
	88	 1	 0.0	 0.0	 0.0	 0.0	 1	    1.00000	    0.00000	 230.0	 1	    1.06000	    0.94000;
	89	 1	 44.2	 0.0	 0.0	 0.0	 1	    1.00000	    0.00000	 115.0	 1	    1.06000	    0.94000;
	90	 1	 66.0	 0.0	 0.0	 0.0	 1	    1.00000	    0.00000	 115.0	 1	    1.06000	    0.94000;
	91	 2	 17.4	 0.0	 0.0	 0.0	 1	    1.00000	    0.00000	 115.0	 1	    1.06000	    0.94000;
	92	 2	 15.8	 0.0	 0.0	 0.0	 1	    1.00000	    0.00000	 115.0	 1	    1.06000	    0.94000;
	94	 1	 60.3	 0.0	 0.0	 0.0	 1	    1.00000	    0.00000	 115.0	 1	    1.06000	    0.94000;
	97	 1	 39.9	 0.0	 0.0	 0.0	 1	    1.00000	    0.00000	 115.0	 1	    1.06000	    0.94000;
	98	 2	 66.7	 0.0	 0.0	 0.0	 1	    1.00000	    0.00000	 115.0	 1	    1.06000	    0.94000;
	99	 1	 83.5	 0.0	 0.0	 0.0	 1	    1.00000	    0.00000	 115.0	 1	    1.06000	    0.94000;
	100	 1	 0.0	 0.0	 0.0	 0.0	 1	    1.00000	    0.00000	 115.0	 1	    1.06000	    0.94000;
	102	 1	 77.8	 0.0	 0.0	 0.0	 1	    1.00000	    0.00000	 115.0	 1	    1.06000	    0.94000;
	103	 1	 32.0	 0.0	 0.0	 0.0	 1	    1.00000	    0.00000	 115.0	 1	    1.06000	    0.94000;
	104	 1	 8.6	 0.0	 0.0	 0.0	 1	    1.00000	    0.00000	 115.0	 1	    1.06000	    0.94000;
	105	 1	 49.6	 0.0	 0.0	 0.0	 1	    1.00000	    0.00000	 115.0	 1	    1.06000	    0.94000;
	107	 1	 4.6	 0.0	 0.0	 0.0	 1	    1.00000	    0.00000	 115.0	 1	    1.06000	    0.94000;
	108	 2	 112.1	 0.0	 0.0	 0.0	 1	    1.00000	    0.00000	 115.0	 1	    1.06000	    0.94000;
	109	 1	 30.7	 0.0	 0.0	 0.0	 1	    1.00000	    0.00000	 115.0	 1	    1.06000	    0.94000;
	110	 1	 63.0	 0.0	 0.0	 0.0	 1	    1.00000	    0.00000	 115.0	 1	    1.06000	    0.94000;
	112	 1	 19.6	 0.0	 0.0	 0.0	 1	    1.00000	    0.00000	 115.0	 1	    1.06000	    0.94000;
	113	 1	 26.2	 0.0	 0.0	 0.0	 1	    1.00000	    0.00000	 115.0	 1	    1.06000	    0.94000;
	114	 1	 18.2	 0.0	 0.0	 0.0	 1	    1.00000	    0.00000	 115.0	 1	    1.06000	    0.94000;
	115	 1	 0.0	 0.0	 0.0	 0.0	 1	    1.00000	    0.00000	 115.0	 2	    1.06000	    0.94000;
	116	 1	 0.0	 0.0	 0.0	 0.0	 1	    1.00000	    0.00000	 115.0	 2	    1.06000	    0.94000;
	117	 1	 0.0	 0.0	 0.0	 325.0	 1	    1.00000	    0.00000	 115.0	 2	    1.06000	    0.94000;
	118	 1	 14.1	 650.0	 0.0	 0.0	 1	    1.00000	    0.00000	 115.0	 2	    1.06000	    0.94000;
	119	 2	 0.0	 0.0	 0.0	 0.0	 1	    1.00000	    0.00000	 115.0	 2	    1.06000	    0.94000;
	120	 1	 777.0	 215.0	 0.0	 55.0	 1	    1.00000	    0.00000	 115.0	 2	    1.06000	    0.94000;
	121	 1	 535.0	 55.0	 0.0	 0.0	 1	    1.00000	    0.00000	 115.0	 2	    1.06000	    0.94000;
	122	 1	 229.1	 11.8	 0.0	 0.0	 1	    1.00000	    0.00000	 115.0	 2	    1.06000	    0.94000;
	123	 1	 78.0	 1.4	 0.0	 0.0	 1	    1.00000	    0.00000	 115.0	 2	    1.06000	    0.94000;
	124	 2	 276.4	 59.3	 0.0	 0.0	 1	    1.00000	    0.00000	 115.0	 2	    1.06000	    0.94000;
	125	 2	 514.8	 82.7	 0.0	 0.0	 1	    1.00000	    0.00000	 115.0	 2	    1.06000	    0.94000;
	126	 1	 57.9	 5.1	 0.0	 0.0	 1	    1.00000	    0.00000	 115.0	 2	    1.06000	    0.94000;
	127	 1	 380.8	 37.0	 0.0	 0.0	 1	    1.00000	    0.00000	 230.0	 2	    1.06000	    0.94000;
	128	 1	 0.0	 0.0	 0.0	 0.0	 1	    1.00000	    0.00000	 230.0	 2	    1.06000	    0.94000;
	129	 1	 0.0	 0.0	 0.0	 0.0	 1	    1.00000	    0.00000	 230.0	 2	    1.06000	    0.94000;
	130	 1	 0.0	 0.0	 0.0	 0.0	 1	    1.00000	    0.00000	 230.0	 2	    1.06000	    0.94000;
	131	 1	 0.0	 0.0	 0.0	 0.0	 1	    1.00000	    0.00000	 230.0	 2	    1.06000	    0.94000;
	132	 1	 0.0	 0.0	 0.0	 0.0	 1	    1.00000	    0.00000	 230.0	 2	    1.06000	    0.94000;
	133	 1	 0.0	 0.0	 0.0	 0.0	 1	    1.00000	    0.00000	 230.0	 2	    1.06000	    0.94000;
	134	 1	 0.0	 0.0	 0.0	 0.0	 1	    1.00000	    0.00000	 230.0	 2	    1.06000	    0.94000;
	135	 1	 169.2	 41.6	 0.0	 0.0	 1	    1.00000	    0.00000	 230.0	 2	    1.06000	    0.94000;
	136	 1	 55.2	 18.2	 0.0	 0.0	 1	    1.00000	    0.00000	 230.0	 2	    1.06000	    0.94000;
	137	 1	 273.6	 99.8	 0.0	 0.0	 1	    1.00000	    0.00000	 230.0	 2	    1.06000	    0.94000;
	138	 2	 1019.2	 135.2	 0.0	 0.0	 1	    1.00000	    0.00000	 230.0	 2	    1.06000	    0.94000;
	139	 1	 595.0	 83.3	 0.0	 0.0	 1	    1.00000	    0.00000	 115.0	 2	    1.06000	    0.94000;
	140	 1	 387.7	 114.7	 0.0	 0.0	 1	    1.00000	    0.00000	 230.0	 2	    1.06000	    0.94000;
	141	 2	 145.0	 58.0	 0.0	 0.0	 1	    1.00000	    0.00000	 230.0	 2	    1.06000	    0.94000;
	142	 1	 56.5	 24.5	 0.0	 0.0	 1	    1.00000	    0.00000	 230.0	 2	    1.06000	    0.94000;
	143	 2	 89.5	 35.5	 0.0	 0.0	 1	    1.00000	    0.00000	 230.0	 2	    1.06000	    0.94000;
	144	 1	 0.0	 0.0	 0.0	 0.0	 1	    1.00000	    0.00000	 230.0	 2	    1.06000	    0.94000;
	145	 1	 24.0	 14.0	 0.0	 0.0	 1	    1.00000	    0.00000	 230.0	 2	    1.06000	    0.94000;
	146	 2	 0.0	 0.0	 0.0	 0.0	 1	    1.00000	    0.00000	 230.0	 2	    1.06000	    0.94000;
	147	 2	 0.0	 0.0	 0.0	 0.0	 1	    1.00000	    0.00000	 230.0	 2	    1.06000	    0.94000;
	148	 1	 63.0	 25.0	 0.0	 0.0	 1	    1.00000	    0.00000	 230.0	 2	    1.06000	    0.94000;
	149	 2	 0.0	 0.0	 0.0	 0.0	 1	    1.00000	    0.00000	 230.0	 2	    1.06000	    0.94000;
	150	 1	 0.0	 0.0	 0.0	 0.0	 1	    1.00000	    0.00000	 230.0	 2	    1.06000	    0.94000;
	151	 1	 0.0	 0.0	 0.0	 0.0	 1	    1.00000	    0.00000	 230.0	 2	    1.06000	    0.94000;
	152	 2	 17.0	 9.0	 0.0	 0.0	 1	    1.00000	    0.00000	 230.0	 2	    1.06000	    0.94000;
	153	 2	 0.0	 0.0	 0.0	 0.0	 1	    1.00000	    0.00000	 230.0	 2	    1.06000	    0.94000;
	154	 1	 70.0	 5.0	 0.0	 34.5	 1	    1.00000	    0.00000	 115.0	 2	    1.06000	    0.94000;
	155	 1	 200.0	 50.0	 0.0	 0.0	 1	    1.00000	    0.00000	 230.0	 2	    1.06000	    0.94000;
	156	 2	 75.0	 50.0	 0.0	 0.0	 1	    1.00000	    0.00000	 115.0	 2	    1.06000	    0.94000;
	157	 1	 123.5	 -24.3	 0.0	 0.0	 1	    1.00000	    0.00000	 230.0	 2	    1.06000	    0.94000;
	158	 1	 0.0	 0.0	 0.0	 0.0	 1	    1.00000	    0.00000	 230.0	 2	    1.06000	    0.94000;
	159	 1	 33.0	 16.5	 0.0	 0.0	 1	    1.00000	    0.00000	 230.0	 2	    1.06000	    0.94000;
	160	 1	 0.0	 0.0	 0.0	 0.0	 1	    1.00000	    0.00000	 230.0	 2	    1.06000	    0.94000;
	161	 1	 35.0	 15.0	 0.0	 0.0	 1	    1.00000	    0.00000	 230.0	 2	    1.06000	    0.94000;
	162	 1	 85.0	 24.0	 0.0	 0.0	 1	    1.00000	    0.00000	 230.0	 2	    1.06000	    0.94000;
	163	 1	 0.0	 0.4	 0.0	 0.0	 1	    1.00000	    0.00000	 230.0	 2	    1.06000	    0.94000;
	164	 1	 0.0	 0.0	 0.0	 -212.0	 1	    1.00000	    0.00000	 230.0	 2	    1.06000	    0.94000;
	165	 1	 0.0	 0.0	 0.0	 0.0	 1	    1.00000	    0.00000	 230.0	 2	    1.06000	    0.94000;
	166	 1	 0.0	 0.0	 0.0	 -103.0	 1	    1.00000	    0.00000	 230.0	 2	    1.06000	    0.94000;
	167	 1	 299.9	 95.7	 0.0	 0.0	 1	    1.00000	    0.00000	 230.0	 2	    1.06000	    0.94000;
	168	 1	 0.0	 0.0	 0.0	 0.0	 1	    1.00000	    0.00000	 230.0	 2	    1.06000	    0.94000;
	169	 1	 0.0	 0.0	 0.0	 0.0	 1	    1.00000	    0.00000	 230.0	 2	    1.06000	    0.94000;
	170	 2	 481.8	 205.0	 0.0	 0.0	 1	    1.00000	    0.00000	 115.0	 2	    1.06000	    0.94000;
	171	 2	 763.6	 291.1	 0.0	 0.0	 1	    1.00000	    0.00000	 115.0	 2	    1.06000	    0.94000;
	172	 1	 26.5	 0.0	 0.0	 0.0	 1	    1.00000	    0.00000	 115.0	 2	    1.06000	    0.94000;
	173	 1	 163.5	 43.0	 0.0	 53.0	 1	    1.00000	    0.00000	 115.0	 2	    1.06000	    0.94000;
	174	 1	 0.0	 0.0	 0.0	 0.0	 1	    1.00000	    0.00000	 115.0	 2	    1.06000	    0.94000;
	175	 1	 176.0	 83.0	 0.0	 0.0	 1	    1.00000	    0.00000	 115.0	 2	    1.06000	    0.94000;
	176	 2	 5.0	 4.0	 0.0	 0.0	 1	    1.00000	    0.00000	 115.0	 2	    1.06000	    0.94000;
	177	 2	 28.0	 12.0	 0.0	 0.0	 1	    1.00000	    0.00000	 115.0	 2	    1.06000	    0.94000;
	178	 1	 427.4	 173.6	 0.0	 0.0	 1	    1.00000	    0.00000	 115.0	 2	    1.06000	    0.94000;
	179	 1	 74.0	 29.0	 0.0	 45.0	 1	    1.00000	    0.00000	 115.0	 2	    1.06000	    0.94000;
	180	 1	 69.5	 49.3	 0.0	 0.0	 1	    1.00000	    0.00000	 115.0	 2	    1.06000	    0.94000;
	181	 1	 73.4	 0.0	 0.0	 0.0	 1	    1.00000	    0.00000	 230.0	 2	    1.06000	    0.94000;
	182	 1	 240.7	 89.0	 0.0	 0.0	 1	    1.00000	    0.00000	 230.0	 2	    1.06000	    0.94000;
	183	 1	 40.0	 4.0	 0.0	 0.0	 1	    1.00000	    0.00000	 115.0	 2	    1.06000	    0.94000;
	184	 1	 136.8	 16.6	 0.0	 0.0	 1	    1.00000	    0.00000	 230.0	 2	    1.06000	    0.94000;
	185	 2	 0.0	 0.0	 0.0	 0.0	 1	    1.00000	    0.00000	 230.0	 2	    1.06000	    0.94000;
	186	 2	 59.8	 24.3	 0.0	 0.0	 1	    1.00000	    0.00000	 230.0	 2	    1.06000	    0.94000;
	187	 2	 59.8	 24.3	 0.0	 0.0	 1	    1.00000	    0.00000	 230.0	 2	    1.06000	    0.94000;
	188	 1	 182.6	 43.6	 0.0	 0.0	 1	    1.00000	    0.00000	 230.0	 2	    1.06000	    0.94000;
	189	 1	 7.0	 2.0	 0.0	 0.0	 1	    1.00000	    0.00000	 66.0	 3	    1.06000	    0.94000;
	190	 2	 0.0	 0.0	 0.0	 -150.0	 1	    1.00000	    0.00000	 345.0	 3	    1.06000	    0.94000;
	191	 2	 489.0	 53.0	 0.0	 0.0	 1	    1.00000	    0.00000	 230.0	 3	    1.06000	    0.94000;
	192	 1	 800.0	 72.0	 0.0	 0.0	 1	    1.00000	    0.00000	 230.0	 3	    1.06000	    0.94000;
	193	 1	 0.0	 0.0	 0.0	 0.0	 1	    1.00000	    0.00000	 66.0	 3	    1.06000	    0.94000;
	194	 1	 0.0	 0.0	 0.0	 0.0	 1	    1.00000	    0.00000	 345.0	 3	    1.06000	    0.94000;
	195	 1	 0.0	 0.0	 0.0	 0.0	 1	    1.00000	    0.00000	 345.0	 3	    1.06000	    0.94000;
	196	 1	 10.0	 3.0	 0.0	 0.0	 1	    1.00000	    0.00000	 115.0	 3	    1.06000	    0.94000;
	197	 1	 43.0	 14.0	 0.0	 0.0	 1	    1.00000	    0.00000	 115.0	 3	    1.06000	    0.94000;
	198	 2	 64.0	 21.0	 0.0	 0.0	 1	    1.00000	    0.00000	 115.0	 3	    1.06000	    0.94000;
	199	 1	 35.0	 12.0	 0.0	 0.0	 1	    1.00000	    0.00000	 115.0	 3	    1.06000	    0.94000;
	200	 1	 27.0	 12.0	 0.0	 0.0	 1	    1.00000	    0.00000	 115.0	 3	    1.06000	    0.94000;
	201	 1	 41.0	 14.0	 0.0	 0.0	 1	    1.00000	    0.00000	 66.0	 1	    1.06000	    0.94000;
	202	 1	 38.0	 13.0	 0.0	 0.0	 1	    1.00000	    0.00000	 66.0	 3	    1.06000	    0.94000;
	203	 1	 42.0	 14.0	 0.0	 0.0	 1	    1.00000	    0.00000	 115.0	 3	    1.06000	    0.94000;
	204	 1	 72.0	 24.0	 0.0	 0.0	 1	    1.00000	    0.00000	 66.0	 3	    1.06000	    0.94000;
	205	 1	 0.0	 -5.0	 0.0	 0.0	 1	    1.00000	    0.00000	 66.0	 3	    1.06000	    0.94000;
	206	 1	 12.0	 2.0	 0.0	 0.0	 1	    1.00000	    0.00000	 66.0	 3	    1.06000	    0.94000;
	207	 1	 -21.0	 -14.2	 0.0	 0.0	 1	    1.00000	    0.00000	 66.0	 1	    1.06000	    0.94000;
	208	 1	 7.0	 2.0	 0.0	 0.0	 1	    1.00000	    0.00000	 66.0	 3	    1.06000	    0.94000;
	209	 1	 38.0	 13.0	 0.0	 0.0	 1	    1.00000	    0.00000	 66.0	 3	    1.06000	    0.94000;
	210	 1	 0.0	 0.0	 0.0	 0.0	 1	    1.00000	    0.00000	 115.0	 3	    1.06000	    0.94000;
	211	 1	 96.0	 7.0	 0.0	 0.0	 1	    1.00000	    0.00000	 115.0	 3	    1.06000	    0.94000;
	212	 1	 0.0	 0.0	 0.0	 0.0	 1	    1.00000	    0.00000	 138.0	 3	    1.06000	    0.94000;
	213	 2	 0.0	 0.0	 0.0	 0.0	 1	    1.00000	    0.00000	 16.5	 3	    1.06000	    0.94000;
	214	 1	 22.0	 16.0	 0.0	 0.0	 1	    1.00000	    0.00000	 138.0	 3	    1.06000	    0.94000;
	215	 1	 47.0	 26.0	 0.0	 0.0	 1	    1.00000	    0.00000	 138.0	 3	    1.06000	    0.94000;
	216	 1	 176.0	 105.0	 0.0	 0.0	 1	    1.00000	    0.00000	 138.0	 3	    1.06000	    0.94000;
	217	 1	 100.0	 75.0	 0.0	 0.0	 1	    1.00000	    0.00000	 138.0	 3	    1.06000	    0.94000;
	218	 1	 131.0	 96.0	 0.0	 0.0	 1	    1.00000	    0.00000	 138.0	 3	    1.06000	    0.94000;
	219	 1	 0.0	 0.0	 0.0	 0.0	 1	    1.00000	    0.00000	 345.0	 3	    1.06000	    0.94000;
	220	 2	 285.0	 100.0	 0.0	 0.0	 1	    1.00000	    0.00000	 138.0	 3	    1.06000	    0.94000;
	221	 2	 171.0	 70.0	 0.0	 0.0	 1	    1.00000	    0.00000	 138.0	 3	    1.06000	    0.94000;
...
];

%% generator data
%	bus	Pg	Qg	Qmax	Qmin	Vg	mBase	status	Pmax	Pmin	Pc1	Pc2	Qc1min	Qc1max	Qc2min	Qc2max	ramp_agc	ramp_10	ramp_30	ramp_q	apf
mpc.gen = [
	8	 0.0	 0.0	 10.0	 -10.0	 1.0153	 100.0	 1	 0.0	 0.0	 0.0	 0.0	 0.0	 0.0	 0.0	 0.0	 0.0	 0.0	 0.0	 0.0	 0.0;
	10	 0.0	 0.0	 20.0	 -20.0	 1.0205	 100.0	 1	 0.0	 0.0	 0.0	 0.0	 0.0	 0.0	 0.0	 0.0	 0.0	 0.0	 0.0	 0.0	 0.0;
	20	 0.0	 0.0	 20.0	 -20.0	 1.001	 100.0	 1	 0.0	 0.0	 0.0	 0.0	 0.0	 0.0	 0.0	 0.0	 0.0	 0.0	 0.0	 0.0	 0.0;
	63	 0.0	 0.0	 25.0	 -25.0	 0.9583	 100.0	 1	 0.0	 0.0	 0.0	 0.0	 0.0	 0.0	 0.0	 0.0	 0.0	 0.0	 0.0	 0.0	 0.0;
	76	 0.0	 23.5	 35.0	 12.0	 0.9632	 100.0	 1	 0.0	 0.0	 0.0	 0.0	 0.0	 0.0	 0.0	 0.0	 0.0	 0.0	 0.0	 0.0	 0.0;
	84	 724.0	 0.0	 240.0	 -240.0	 1.025	 100.0	 1	 1448.0	 0.0	 0.0	 0.0	 0.0	 0.0	 0.0	 0.0	 0.0	 0.0	 0.0	 0.0	 0.0;
	91	 92.5	 41.0	 93.0	 -11.0	 1.052	 100.0	 1	 185.0	 0.0	 0.0	 0.0	 0.0	 0.0	 0.0	 0.0	 0.0	 0.0	 0.0	 0.0	 0.0;
	92	 180.0	 0.0	 153.0	 -153.0	 1.052	 100.0	 1	 360.0	 0.0	 0.0	 0.0	 0.0	 0.0	 0.0	 0.0	 0.0	 0.0	 0.0	 0.0	 0.0;
	98	 46.5	 8.5	 47.0	 -30.0	 1.0	 100.0	 1	 93.0	 0.0	 0.0	 0.0	 0.0	 0.0	 0.0	 0.0	 0.0	 0.0	 0.0	 0.0	 0.0;
	108	 98.5	 26.5	 77.0	 -24.0	 0.99	 100.0	 1	 197.0	 0.0	 0.0	 0.0	 0.0	 0.0	 0.0	 0.0	 0.0	 0.0	 0.0	 0.0	 0.0;
	119	 1020.5	 260.5	 1021.0	 -500.0	 1.0435	 100.0	 1	 2041.0	 0.0	 0.0	 0.0	 0.0	 0.0	 0.0	 0.0	 0.0	 0.0	 0.0	 0.0	 0.0;
	124	 160.5	 30.0	 120.0	 -60.0	 1.0233	 100.0	 1	 321.0	 0.0	 0.0	 0.0	 0.0	 0.0	 0.0	 0.0	 0.0	 0.0	 0.0	 0.0	 0.0;
	125	 0.0	 87.5	 200.0	 -25.0	 1.0103	 100.0	 1	 0.0	 0.0	 0.0	 0.0	 0.0	 0.0	 0.0	 0.0	 0.0	 0.0	 0.0	 0.0	 0.0;
	138	 0.0	 112.5	 350.0	 -125.0	 1.055	 100.0	 1	 0.0	 0.0	 0.0	 0.0	 0.0	 0.0	 0.0	 0.0	 0.0	 0.0	 0.0	 0.0	 0.0;
	141	 148.5	 12.5	 75.0	 -50.0	 1.051	 100.0	 1	 297.0	 0.0	 0.0	 0.0	 0.0	 0.0	 0.0	 0.0	 0.0	 0.0	 0.0	 0.0	 0.0;
	143	 400.0	 100.0	 300.0	 -100.0	 1.0435	 100.0	 1	 800.0	 0.0	 0.0	 0.0	 0.0	 0.0	 0.0	 0.0	 0.0	 0.0	 0.0	 0.0	 0.0;
	146	 45.5	 10.0	 35.0	 -15.0	 1.0528	 100.0	 1	 91.0	 0.0	 0.0	 0.0	 0.0	 0.0	 0.0	 0.0	 0.0	 0.0	 0.0	 0.0	 0.0;
	147	 160.0	 25.0	 100.0	 -50.0	 1.0528	 100.0	 1	 320.0	 0.0	 0.0	 0.0	 0.0	 0.0	 0.0	 0.0	 0.0	 0.0	 0.0	 0.0	 0.0;
	149	 138.5	 12.5	 50.0	 -25.0	 1.0735	 100.0	 1	 277.0	 0.0	 0.0	 0.0	 0.0	 0.0	 0.0	 0.0	 0.0	 0.0	 0.0	 0.0	 0.0;
	152	 303.0	 62.5	 175.0	 -50.0	 1.0535	 100.0	 1	 606.0	 0.0	 0.0	 0.0	 0.0	 0.0	 0.0	 0.0	 0.0	 0.0	 0.0	 0.0	 0.0;
	153	 121.0	 20.0	 90.0	 -50.0	 1.0435	 100.0	 1	 242.0	 0.0	 0.0	 0.0	 0.0	 0.0	 0.0	 0.0	 0.0	 0.0	 0.0	 0.0	 0.0;
	156	 0.0	 2.5	 15.0	 -10.0	 0.963	 100.0	 1	 0.0	 0.0	 0.0	 0.0	 0.0	 0.0	 0.0	 0.0	 0.0	 0.0	 0.0	 0.0	 0.0;
	170	 165.0	 25.0	 90.0	 -40.0	 0.929	 100.0	 1	 330.0	 0.0	 0.0	 0.0	 0.0	 0.0	 0.0	 0.0	 0.0	 0.0	 0.0	 0.0	 0.0;
	171	 0.0	 50.0	 150.0	 -50.0	 0.9829	 100.0	 1	 0.0	 0.0	 0.0	 0.0	 0.0	 0.0	 0.0	 0.0	 0.0	 0.0	 0.0	 0.0	 0.0;
	176	 139.0	 22.5	 90.0	 -45.0	 1.0522	 100.0	 1	 278.0	 0.0	 0.0	 0.0	 0.0	 0.0	 0.0	 0.0	 0.0	 0.0	 0.0	 0.0	 0.0;
	177	 62.5	 10.0	 35.0	 -15.0	 1.0077	 100.0	 1	 125.0	 0.0	 0.0	 0.0	 0.0	 0.0	 0.0	 0.0	 0.0	 0.0	 0.0	 0.0	 0.0;
	185	 125.0	 15.0	 80.0	 -50.0	 1.0522	 100.0	 1	 250.0	 0.0	 0.0	 0.0	 0.0	 0.0	 0.0	 0.0	 0.0	 0.0	 0.0	 0.0	 0.0;
	186	 1232.5	 150.0	 400.0	 -100.0	 1.065	 100.0	 1	 2465.0	 0.0	 0.0	 0.0	 0.0	 0.0	 0.0	 0.0	 0.0	 0.0	 0.0	 0.0	 0.0;
	187	 812.0	 150.0	 400.0	 -100.0	 1.065	 100.0	 1	 1624.0	 0.0	 0.0	 0.0	 0.0	 0.0	 0.0	 0.0	 0.0	 0.0	 0.0	 0.0	 0.0;
	190	 257.5	 0.0	 258.0	 -258.0	 1.0551	 100.0	 1	 515.0	 0.0	 0.0	 0.0	 0.0	 0.0	 0.0	 0.0	 0.0	 0.0	 0.0	 0.0	 0.0;
	191	 1070.0	 0.0	 1000.0	 -1000.0	 1.0435	 100.0	 1	 2140.0	 0.0	 0.0	 0.0	 0.0	 0.0	 0.0	 0.0	 0.0	 0.0	 0.0	 0.0	 0.0;
	198	 215.0	 0.0	 215.0	 -215.0	 1.015	 100.0	 1	 430.0	 0.0	 0.0	 0.0	 0.0	 0.0	 0.0	 0.0	 0.0	 0.0	 0.0	 0.0	 0.0;
	213	 144.0	 0.0	 144.0	 -144.0	 1.01	 100.0	 1	 288.0	 0.0	 0.0	 0.0	 0.0	 0.0	 0.0	 0.0	 0.0	 0.0	 0.0	 0.0	 0.0;
	220	 230.0	 0.0	 60.0	 -60.0	 1.008	 100.0	 1	 460.0	 0.0	 0.0	 0.0	 0.0	 0.0	 0.0	 0.0	 0.0	 0.0	 0.0	 0.0	 0.0;
	221	 277.0	 0.0	 277.0	 -277.0	 1.0	 100.0	 1	 554.0	 0.0	 0.0	 0.0	 0.0	 0.0	 0.0	 0.0	 0.0	 0.0	 0.0	 0.0	 0.0;
	222	 261.5	 0.0	 262.0	 -262.0	 1.05	 100.0	 1	 523.0	 0.0	 0.0	 0.0	 0.0	 0.0	 0.0	 0.0	 0.0	 0.0	 0.0	 0.0	 0.0;
	227	 218.0	 0.0	 218.0	 -218.0	 1.0	 100.0	 1	 436.0	 0.0	 0.0	 0.0	 0.0	 0.0	 0.0	 0.0	 0.0	 0.0	 0.0	 0.0	 0.0;
	230	 229.0	 0.0	 229.0	 -229.0	 1.04	 100.0	 1	 458.0	 0.0	 0.0	 0.0	 0.0	 0.0	 0.0	 0.0	 0.0	 0.0	 0.0	 0.0	 0.0;
	233	 170.5	 0.0	 171.0	 -171.0	 1.0	 100.0	 1	 341.0	 0.0	 0.0	 0.0	 0.0	 0.0	 0.0	 0.0	 0.0	 0.0	 0.0	 0.0	 0.0;
	236	 440.5	 0.0	 300.0	 -300.0	 1.0165	 100.0	 1	 881.0	 0.0	 0.0	 0.0	 0.0	 0.0	 0.0	 0.0	 0.0	 0.0	 0.0	 0.0	 0.0;
	238	 133.5	 0.0	 134.0	 -134.0	 1.01	 100.0	 1	 267.0	 0.0	 0.0	 0.0	 0.0	 0.0	 0.0	 0.0	 0.0	 0.0	 0.0	 0.0	 0.0;
	239	 310.5	 0.0	 311.0	 -311.0	 1.0	 100.0	 1	 621.0	 0.0	 0.0	 0.0	 0.0	 0.0	 0.0	 0.0	 0.0	 0.0	 0.0	 0.0	 0.0;
	241	 563.5	 0.0	 564.0	 -564.0	 1.05	 100.0	 1	 1127.0	 0.0	 0.0	 0.0	 0.0	 0.0	 0.0	 0.0	 0.0	 0.0	 0.0	 0.0	 0.0;
	242	 106.0	 70.0	 100.0	 40.0	 0.993	 100.0	 1	 212.0	 0.0	 0.0	 0.0	 0.0	 0.0	 0.0	 0.0	 0.0	 0.0	 0.0	 0.0	 0.0;
	243	 171.0	 60.0	 80.0	 40.0	 1.01	 100.0	 1	 342.0	 0.0	 0.0	 0.0	 0.0	 0.0	 0.0	 0.0	 0.0	 0.0	 0.0	 0.0	 0.0;
	7001	 284.0	 0.0	 210.0	 -210.0	 1.0507	 100.0	 1	 568.0	 0.0	 0.0	 0.0	 0.0	 0.0	 0.0	 0.0	 0.0	 0.0	 0.0	 0.0	 0.0;
	7002	 335.0	 0.0	 280.0	 -280.0	 1.0507	 100.0	 1	 670.0	 0.0	 0.0	 0.0	 0.0	 0.0	 0.0	 0.0	 0.0	 0.0	 0.0	 0.0	 0.0;
	7003	 700.5	 0.0	 420.0	 -420.0	 1.0323	 100.0	 1	 1401.0	 0.0	 0.0	 0.0	 0.0	 0.0	 0.0	 0.0	 0.0	 0.0	 0.0	 0.0	 0.0;
	7011	 334.0	 0.0	 100.0	 -100.0	 1.0145	 100.0	 1	 668.0	 0.0	 0.0	 0.0	 0.0	 0.0	 0.0	 0.0	 0.0	 0.0	 0.0	 0.0	 0.0;
	7012	 313.0	 0.0	 224.0	 -224.0	 1.0507	 100.0	 1	 626.0	 0.0	 0.0	 0.0	 0.0	 0.0	 0.0	 0.0	 0.0	 0.0	 0.0	 0.0	 0.0;
	7017	 245.0	 122.5	 245.0	 0.0	 1.0507	 100.0	 1	 490.0	 0.0	 0.0	 0.0	 0.0	 0.0	 0.0	 0.0	 0.0	 0.0	 0.0	 0.0	 0.0;
	7023	 110.0	 55.0	 110.0	 0.0	 1.0507	 100.0	 1	 220.0	 0.0	 0.0	 0.0	 0.0	 0.0	 0.0	 0.0	 0.0	 0.0	 0.0	 0.0	 0.0;
	7024	 271.5	 0.0	 224.0	 -224.0	 1.029	 100.0	 1	 543.0	 0.0	 0.0	 0.0	 0.0	 0.0	 0.0	 0.0	 0.0	 0.0	 0.0	 0.0	 0.0;
	7039	 290.0	 0.0	 200.0	 -200.0	 1.05	 100.0	 1	 580.0	 0.0	 0.0	 0.0	 0.0	 0.0	 0.0	 0.0	 0.0	 0.0	 0.0	 0.0	 0.0;
	7044	 66.0	 21.0	 42.0	 0.0	 1.0145	 100.0	 1	 132.0	 0.0	 0.0	 0.0	 0.0	 0.0	 0.0	 0.0	 0.0	 0.0	 0.0	 0.0	 0.0;
	7049	 359.0	 5.0	 10.0	 0.0	 1.0507	 100.0	 1	 718.0	 0.0	 0.0	 0.0	 0.0	 0.0	 0.0	 0.0	 0.0	 0.0	 0.0	 0.0	 0.0;
	7055	 79.0	 12.5	 25.0	 0.0	 0.9967	 100.0	 1	 158.0	 0.0	 0.0	 0.0	 0.0	 0.0	 0.0	 0.0	 0.0	 0.0	 0.0	 0.0	 0.0;
	7057	 167.0	 0.0	 90.0	 -90.0	 1.0212	 100.0	 1	 334.0	 0.0	 0.0	 0.0	 0.0	 0.0	 0.0	 0.0	 0.0	 0.0	 0.0	 0.0	 0.0;
	7061	 878.5	 0.0	 150.0	 -150.0	 1.0145	 100.0	 1	 1757.0	 0.0	 0.0	 0.0	 0.0	 0.0	 0.0	 0.0	 0.0	 0.0	 0.0	 0.0	 0.0;
	7062	 284.0	 75.0	 150.0	 0.0	 1.0017	 100.0	 1	 568.0	 0.0	 0.0	 0.0	 0.0	 0.0	 0.0	 0.0	 0.0	 0.0	 0.0	 0.0	 0.0;
	7071	 101.5	 43.5	 87.0	 0.0	 0.9893	 100.0	 1	 203.0	 0.0	 0.0	 0.0	 0.0	 0.0	 0.0	 0.0	 0.0	 0.0	 0.0	 0.0	 0.0;
	7130	 863.0	 250.0	 600.0	 -100.0	 1.0507	 100.0	 1	 1726.0	 0.0	 0.0	 0.0	 0.0	 0.0	 0.0	 0.0	 0.0	 0.0	 0.0	 0.0	 0.0;
	7139	 1012.5	 100.0	 325.0	 -125.0	 1.0507	 100.0	 1	 2025.0	 0.0	 0.0	 0.0	 0.0	 0.0	 0.0	 0.0	 0.0	 0.0	 0.0	 0.0	 0.0;
	7166	 312.0	 50.0	 300.0	 -200.0	 1.0145	 100.0	 1	 624.0	 0.0	 0.0	 0.0	 0.0	 0.0	 0.0	 0.0	 0.0	 0.0	 0.0	 0.0	 0.0;
	9002	 0.0	 0.0	 2.0	 -2.0	 0.9945	 100.0	 1	 0.0	 0.0	 0.0	 0.0	 0.0	 0.0	 0.0	 0.0	 0.0	 0.0	 0.0	 0.0	 0.0;
	9051	 0.0	 0.0	 17.35	 -17.35	 1.0	 100.0	 1	 0.0	 0.0	 0.0	 0.0	 0.0	 0.0	 0.0	 0.0	 0.0	 0.0	 0.0	 0.0	 0.0;
	9053	 0.0	 0.015	 12.83	 -12.8	 1.0	 100.0	 1	 0.0	 0.0	 0.0	 0.0	 0.0	 0.0	 0.0	 0.0	 0.0	 0.0	 0.0	 0.0	 0.0;
	9054	 42.0	 0.0	 38.0	 -38.0	 1.0	 100.0	 1	 84.0	 0.0	 0.0	 0.0	 0.0	 0.0	 0.0	 0.0	 0.0	 0.0	 0.0	 0.0	 0.0;
	9055	 18.5	 0.0	 6.0	 -6.0	 1.0	 100.0	 1	 37.0	 0.0	 0.0	 0.0	 0.0	 0.0	 0.0	 0.0	 0.0	 0.0	 0.0	 0.0	 0.0;
];

%% generator cost data
%	2	startup	shutdown	n	c(n-1)	...	c0
mpc.gencost = [
	2	 0.0	 0.0	 3	   0.000000	   0.000000	   0.000000;
	2	 0.0	 0.0	 3	   0.000000	   0.000000	   0.000000;
	2	 0.0	 0.0	 3	   0.000000	   0.000000	   0.000000;
	2	 0.0	 0.0	 3	   0.000000	   0.000000	   0.000000;
	2	 0.0	 0.0	 3	   0.000000	   0.000000	   0.000000;
	2	 0.0	 0.0	 3	   0.000000	   0.696072	   0.000000;
	2	 0.0	 0.0	 3	   0.000000	   1.276654	   0.000000;
	2	 0.0	 0.0	 3	   0.000000	   1.423982	   0.000000;
	2	 0.0	 0.0	 3	   0.000000	   0.932091	   0.000000;
	2	 0.0	 0.0	 3	   0.000000	   1.136551	   0.000000;
	2	 0.0	 0.0	 3	   0.000000	   0.221947	   0.000000;
	2	 0.0	 0.0	 3	   0.000000	   0.923244	   0.000000;
	2	 0.0	 0.0	 3	   0.000000	   0.000000	   0.000000;
	2	 0.0	 0.0	 3	   0.000000	   0.000000	   0.000000;
	2	 0.0	 0.0	 3	   0.000000	   0.993462	   0.000000;
	2	 0.0	 0.0	 3	   0.000000	   0.949223	   0.000000;
	2	 0.0	 0.0	 3	   0.000000	   0.601542	   0.000000;
	2	 0.0	 0.0	 3	   0.000000	   1.345374	   0.000000;
	2	 0.0	 0.0	 3	   0.000000	   1.089267	   0.000000;
	2	 0.0	 0.0	 3	   0.000000	   1.076492	   0.000000;
	2	 0.0	 0.0	 3	   0.000000	   0.850329	   0.000000;
	2	 0.0	 0.0	 3	   0.000000	   0.000000	   0.000000;
	2	 0.0	 0.0	 3	   0.000000	   1.080747	   0.000000;
	2	 0.0	 0.0	 3	   0.000000	   0.000000	   0.000000;
	2	 0.0	 0.0	 3	   0.000000	   1.053209	   0.000000;
	2	 0.0	 0.0	 3	   0.000000	   0.964843	   0.000000;
	2	 0.0	 0.0	 3	   0.000000	   0.953156	   0.000000;
	2	 0.0	 0.0	 3	   0.000000	   0.046894	   0.000000;
	2	 0.0	 0.0	 3	   0.000000	   0.843699	   0.000000;
	2	 0.0	 0.0	 3	   0.000000	   1.332474	   0.000000;
	2	 0.0	 0.0	 3	   0.000000	   0.746188	   0.000000;
	2	 0.0	 0.0	 3	   0.000000	   1.001112	   0.000000;
	2	 0.0	 0.0	 3	   0.000000	   1.342816	   0.000000;
	2	 0.0	 0.0	 3	   0.000000	   0.823456	   0.000000;
	2	 0.0	 0.0	 3	   0.000000	   1.008791	   0.000000;
	2	 0.0	 0.0	 3	   0.000000	   1.363295	   0.000000;
	2	 0.0	 0.0	 3	   0.000000	   0.946195	   0.000000;
	2	 0.0	 0.0	 3	   0.000000	   1.162087	   0.000000;
	2	 0.0	 0.0	 3	   0.000000	   1.085767	   0.000000;
	2	 0.0	 0.0	 3	   0.000000	   1.005700	   0.000000;
	2	 0.0	 0.0	 3	   0.000000	   1.158965	   0.000000;
	2	 0.0	 0.0	 3	   0.000000	   1.187566	   0.000000;
	2	 0.0	 0.0	 3	   0.000000	   1.201077	   0.000000;
	2	 0.0	 0.0	 3	   0.000000	   7.075790	   0.000000;
	2	 0.0	 0.0	 3	   0.000000	   1.061759	   0.000000;
	2	 0.0	 0.0	 3	   0.000000	   1.133704	   0.000000;
	2	 0.0	 0.0	 3	   0.000000	   0.728119	   0.000000;
	2	 0.0	 0.0	 3	   0.000000	   0.216956	   0.000000;
	2	 0.0	 0.0	 3	   0.000000	   0.825640	   0.000000;
	2	 0.0	 0.0	 3	   0.000000	   0.953948	   0.000000;
	2	 0.0	 0.0	 3	   0.000000	   1.076193	   0.000000;
	2	 0.0	 0.0	 3	   0.000000	   1.367305	   0.000000;
	2	 0.0	 0.0	 3	   0.000000	   0.982393	   0.000000;
	2	 0.0	 0.0	 3	   0.000000	   6.629403	   0.000000;
	2	 0.0	 0.0	 3	   0.000000	   1.143766	   0.000000;
	2	 0.0	 0.0	 3	   0.000000	   0.199341	   0.000000;
	2	 0.0	 0.0	 3	   0.000000	   0.978385	   0.000000;
	2	 0.0	 0.0	 3	   0.000000	   1.574915	   0.000000;
	2	 0.0	 0.0	 3	   0.000000	   0.647608	   0.000000;
	2	 0.0	 0.0	 3	   0.000000	   0.918746	   0.000000;
	2	 0.0	 0.0	 3	   0.000000	   1.011540	   0.000000;
	2	 0.0	 0.0	 3	   0.000000	   0.918939	   0.000000;
	2	 0.0	 0.0	 3	   0.000000	   1.113579	   0.000000;
	2	 0.0	 0.0	 3	   0.000000	   1.108741	   0.000000;
	2	 0.0	 0.0	 3	   0.000000	   0.000000	   0.000000;
	2	 0.0	 0.0	 3	   0.000000	   0.000000	   0.000000;
	2	 0.0	 0.0	 3	   0.000000	   0.000000	   0.000000;
	2	 0.0	 0.0	 3	   0.000000	   1.036639	   0.000000;
	2	 0.0	 0.0	 3	   0.000000	   6.311317	   0.000000;
];

%% branch data
%	fbus	tbus	r	x	b	rateA	rateB	rateC	ratio	angle	status	angmin	angmax
mpc.branch = [
	37	 9001	 6e-05	 0.00046	 0.0	 9900.0	 63230.0	 75.0	 1.0082	 0.0	 1	 -15.59837	 15.59837;
	9001	 9005	 0.0008	 0.00348	 0.0	 8215.0	 8215.0	 8215.0	 0.0	 0.0	 1	 -15.59837	 15.59837;
	9001	 9006	 0.02439	 0.43682	 0.0	 68.0	 68.0	 68.0	 0.9668	 0.0	 1	 -15.59837	 15.59837;
	9001	 9012	 0.03624	 0.64898	 0.0	 46.0	 46.0	 46.0	 0.9796	 0.0	 1	 -15.59837	 15.59837;
	9005	 9051	 0.01578	 0.37486	 0.0	 79.0	 79.0	 79.0	 1.0435	 0.0	 1	 -15.59837	 15.59837;
	9005	 9052	 0.01578	 0.37486	 0.0	 79.0	 79.0	 79.0	 0.9391	 0.0	 1	 -15.59837	 15.59837;
	9005	 9053	 0.01602	 0.38046	 0.0	 78.0	 78.0	 78.0	 1.0435	 0.0	 1	 -15.59837	 15.59837;
	9005	 9054	 0.0	 0.152	 0.0	 193.0	 193.0	 193.0	 1.0435	 0.0	 1	 -15.59837	 15.59837;
	9005	 9055	 0.0	 0.8	 0.0	 37.0	 37.0	 37.0	 1.0435	 0.0	 1	 -15.59837	 15.59837;
	9006	 9007	 0.05558	 0.24666	 0.0	 117.0	 117.0	 117.0	 0.0	 0.0	 1	 -15.59837	 15.59837;
	9006	 9003	 0.11118	 0.49332	 0.0	 59.0	 59.0	 59.0	 0.0	 0.0	 1	 -15.59837	 15.59837;
	9006	 9003	 0.11118	 0.49332	 0.0	 59.0	 59.0	 59.0	 0.0	 0.0	 1	 -15.59837	 15.59837;
	9012	 9002	 0.07622	 0.43286	 0.0	 67.0	 67.0	 67.0	 0.0	 0.0	 1	 -15.59837	 15.59837;
	9012	 9002	 0.07622	 0.43286	 0.0	 67.0	 67.0	 67.0	 0.0	 0.0	 1	 -15.59837	 15.59837;
	9002	 9021	 0.0537	 0.07026	 0.0	 332.0	 332.0	 332.0	 0.0	 0.0	 1	 -15.59837	 15.59837;
	9021	 9023	 1.1068	 0.95278	 0.0	 21.0	 21.0	 21.0	 0.0	 0.0	 1	 -15.59837	 15.59837;
	9021	 9022	 0.44364	 2.8152	 0.0	 11.0	 11.0	 11.0	 1.0	 0.0	 1	 -15.59837	 15.59837;
	9002	 9024	 0.50748	 3.2202	 0.0	 9.0	 9.0	 9.0	 1.0	 0.0	 1	 -15.59837	 15.59837;
	9023	 9025	 0.66688	 3.944	 0.0	 8.0	 8.0	 8.0	 1.0	 0.0	 1	 -15.59837	 15.59837;
	9023	 9026	 0.6113	 3.6152	 0.0	 8.0	 8.0	 8.0	 1.0	 0.0	 1	 -15.59837	 15.59837;
	9007	 9071	 0.4412	 2.9668	 0.0	 10.0	 10.0	 10.0	 1.0	 0.0	 1	 -15.59837	 15.59837;
	9007	 9072	 0.30792	 2.057	 0.0	 15.0	 15.0	 15.0	 1.0	 0.0	 1	 -15.59837	 15.59837;
	9007	 9003	 0.0558	 0.24666	 0.0	 116.0	 116.0	 116.0	 0.0	 0.0	 1	 -15.59837	 15.59837;
	9003	 9031	 0.73633	 4.6724	 0.0	 7.0	 7.0	 7.0	 1.0	 0.0	 1	 -15.59837	 15.59837;
	9003	 9032	 0.76978	 4.8846	 0.0	 6.0	 6.0	 6.0	 1.0	 0.0	 1	 -15.59837	 15.59837;
	9003	 9033	 0.75732	 4.8056	 0.0	 7.0	 7.0	 7.0	 1.0	 0.0	 1	 -15.59837	 15.59837;
	9003	 9044	 0.07378	 0.06352	 0.0	 302.0	 302.0	 302.0	 0.0	 0.0	 1	 -15.59837	 15.59837;
	9044	 9004	 0.03832	 0.02894	 0.0	 611.0	 611.0	 611.0	 0.0	 0.0	 1	 -15.59837	 15.59837;
	9004	 9041	 0.36614	 2.456	 0.0	 12.0	 12.0	 12.0	 1.0	 0.0	 1	 -15.59837	 15.59837;
	9004	 9042	 1.0593	 5.4536	 0.0	 6.0	 6.0	 6.0	 1.0	 0.0	 1	 -15.59837	 15.59837;
	9004	 9043	 0.1567	 1.6994	 0.0	 18.0	 18.0	 18.0	 1.0	 0.0	 1	 -15.59837	 15.59837;
	9003	 9034	 0.13006	 1.3912	 0.0	 21.0	 21.0	 21.0	 1.0	 0.0	 1	 -15.59837	 15.59837;
	9003	 9035	 0.54484	 3.4572	 0.0	 9.0	 9.0	 9.0	 1.0	 0.0	 1	 -15.59837	 15.59837;
	9003	 9036	 0.15426	 1.6729	 0.0	 18.0	 18.0	 18.0	 1.0	 0.0	 1	 -15.59837	 15.59837;
	9003	 9037	 0.3849	 2.5712	 0.0	 12.0	 12.0	 12.0	 1.0	 0.0	 1	 -15.59837	 15.59837;
	9003	 9038	 0.4412	 2.9668	 0.0	 10.0	 10.0	 10.0	 1.0	 0.0	 1	 -15.59837	 15.59837;
	9012	 9121	 0.23552	 0.99036	 0.0	 29.0	 29.0	 29.0	 0.0	 0.0	 1	 -15.59837	 15.59837;
	9053	 9533	 0.0	 0.75	 0.0	 40.0	 40.0	 40.0	 0.9583	 0.0	 1	 -15.59837	 15.59837;
	1	 5	 0.001	 0.006	 0.0	 4823.0	 4823.0	 4823.0	 0.0	 0.0	 1	 -15.59837	 15.59837;
	2	 6	 0.001	 0.009	 0.0	 3240.0	 3240.0	 3240.0	 0.0	 0.0	 1	 -15.59837	 15.59837;
	2	 8	 0.006	 0.027	 0.054	 1061.0	 1061.0	 1061.0	 0.0	 0.0	 1	 -15.59837	 15.59837;
	3	 7	 0.0	 0.003	 0.0	 9778.0	 9778.0	 9778.0	 0.0	 0.0	 1	 -15.59837	 15.59837;
	3	 19	 0.008	 0.069	 0.139	 423.0	 423.0	 423.0	 0.0	 0.0	 1	 -15.59837	 15.59837;
	3	 150	 0.001	 0.007	 0.0	 4149.0	 4149.0	 4149.0	 0.0	 0.0	 1	 -15.59837	 15.59837;
	4	 16	 0.002	 0.019	 1.127	 1536.0	 1536.0	 1536.0	 0.0	 0.0	 1	 -15.59837	 15.59837;
	5	 9	 0.006	 0.029	 0.018	 991.0	 991.0	 991.0	 0.0	 0.0	 1	 -15.59837	 15.59837;
	7	 12	 0.001	 0.009	 0.07	 3240.0	 3240.0	 3240.0	 0.0	 0.0	 1	 -15.59837	 15.59837;
	7	 131	 0.001	 0.007	 0.014	 4149.0	 4149.0	 4149.0	 0.0	 0.0	 1	 -15.59837	 15.59837;
	8	 11	 0.013	 0.0595	 0.033	 482.0	 482.0	 482.0	 0.0	 0.0	 1	 -15.59837	 15.59837;
	8	 14	 0.013	 0.042	 0.081	 668.0	 668.0	 668.0	 0.0	 0.0	 1	 -15.59837	 15.59837;
	9	 11	 0.006	 0.027	 0.013	 1061.0	 1061.0	 1061.0	 0.0	 0.0	 1	 -15.59837	 15.59837;
	11	 13	 0.008	 0.034	 0.018	 840.0	 840.0	 840.0	 0.0	 0.0	 1	 -15.59837	 15.59837;
	12	 21	 0.002	 0.015	 0.118	 1939.0	 1939.0	 1939.0	 0.0	 0.0	 1	 -15.59837	 15.59837;
	13	 20	 0.006	 0.034	 0.016	 850.0	 850.0	 850.0	 0.0	 0.0	 1	 -15.59837	 15.59837;
	14	 15	 0.014	 0.042	 0.097	 663.0	 663.0	 663.0	 0.0	 0.0	 1	 -15.59837	 15.59837;
	15	 37	 0.065	 0.248	 0.121	 115.0	 115.0	 115.0	 0.0	 0.0	 1	 -15.59837	 15.59837;
	15	 89	 0.099	 0.248	 0.035	 110.0	 110.0	 110.0	 0.0	 0.0	 1	 -15.59837	 15.59837;
	15	 90	 0.096	 0.363	 0.048	 79.0	 79.0	 79.0	 0.0	 0.0	 1	 -15.59837	 15.59837;
	16	 42	 0.002	 0.022	 1.28	 1328.0	 1328.0	 1328.0	 0.0	 0.0	 1	 -15.59837	 15.59837;
	19	 21	 0.002	 0.018	 0.036	 1620.0	 1620.0	 1620.0	 0.0	 0.0	 1	 -15.59837	 15.59837;
	19	 87	 0.013	 0.08	 0.151	 362.0	 362.0	 362.0	 0.0	 0.0	 1	 -15.59837	 15.59837;
	20	 22	 0.016	 0.033	 0.015	 800.0	 800.0	 800.0	 0.0	 0.0	 1	 -15.59837	 15.59837;
	20	 27	 0.069	 0.186	 0.098	 148.0	 148.0	 148.0	 0.0	 0.0	 1	 -15.59837	 15.59837;
	21	 24	 0.004	 0.034	 0.28	 857.0	 857.0	 857.0	 0.0	 0.0	 1	 -15.59837	 15.59837;
	22	 23	 0.052	 0.111	 0.05	 240.0	 240.0	 240.0	 0.0	 0.0	 1	 -15.59837	 15.59837;
	23	 25	 0.019	 0.039	 0.018	 677.0	 677.0	 677.0	 0.0	 0.0	 1	 -15.59837	 15.59837;
	24	 319	 0.007	 0.068	 0.134	 430.0	 430.0	 430.0	 0.0	 0.0	 1	 -15.59837	 15.59837;
	25	 26	 0.036	 0.071	 0.034	 369.0	 369.0	 369.0	 0.0	 0.0	 1	 -15.59837	 15.59837;
	26	 27	 0.045	 0.12	 0.065	 229.0	 229.0	 229.0	 0.0	 0.0	 1	 -15.59837	 15.59837;
	26	 320	 0.043	 0.13	 0.014	 215.0	 215.0	 215.0	 0.0	 0.0	 1	 -15.59837	 15.59837;
	33	 34	 0.0	 0.063	 0.0	 466.0	 466.0	 466.0	 0.0	 0.0	 1	 -15.59837	 15.59837;
	33	 38	 0.0025	 0.012	 0.013	 2393.0	 2393.0	 2393.0	 0.0	 0.0	 1	 -15.59837	 15.59837;
	33	 40	 0.006	 0.029	 0.02	 991.0	 991.0	 991.0	 0.0	 0.0	 1	 -15.59837	 15.59837;
	33	 41	 0.007	 0.043	 0.026	 674.0	 674.0	 674.0	 0.0	 0.0	 1	 -15.59837	 15.59837;
	34	 42	 0.001	 0.008	 0.042	 3639.0	 3639.0	 3639.0	 0.0	 0.0	 1	 -15.59837	 15.59837;
	35	 72	 0.012	 0.06	 0.008	 480.0	 480.0	 480.0	 0.0	 0.0	 1	 -15.59837	 15.59837;
	35	 76	 0.006	 0.014	 0.002	 1926.0	 1926.0	 1926.0	 0.0	 0.0	 1	 -15.59837	 15.59837;
	35	 77	 0.01	 0.029	 0.003	 957.0	 957.0	 957.0	 0.0	 0.0	 1	 -15.59837	 15.59837;
	36	 88	 0.004	 0.027	 0.043	 1075.0	 1075.0	 1075.0	 0.0	 0.0	 1	 -15.59837	 15.59837;
	37	 38	 0.008	 0.047	 0.008	 616.0	 616.0	 616.0	 0.0	 0.0	 1	 -15.59837	 15.59837;
	37	 40	 0.022	 0.064	 0.007	 434.0	 434.0	 434.0	 0.0	 0.0	 1	 -15.59837	 15.59837;
	37	 41	 0.01	 0.036	 0.02	 786.0	 786.0	 786.0	 0.0	 0.0	 1	 -15.59837	 15.59837;
	37	 49	 0.017	 0.081	 0.048	 355.0	 355.0	 355.0	 0.0	 0.0	 1	 -15.59837	 15.59837;
	37	 89	 0.102	 0.254	 0.033	 108.0	 108.0	 108.0	 0.0	 0.0	 1	 -15.59837	 15.59837;
	37	 90	 0.047	 0.127	 0.016	 217.0	 217.0	 217.0	 0.0	 0.0	 1	 -15.59837	 15.59837;
	38	 41	 0.008	 0.037	 0.02	 775.0	 775.0	 775.0	 0.0	 0.0	 1	 -15.59837	 15.59837;
	38	 43	 0.032	 0.087	 0.04	 317.0	 317.0	 317.0	 0.0	 0.0	 1	 -15.59837	 15.59837;
	39	 42	 0.0006	 0.0064	 0.404	 4564.0	 4564.0	 4564.0	 0.0	 0.0	 1	 -15.59837	 15.59837;
	40	 48	 0.026	 0.154	 0.022	 188.0	 188.0	 188.0	 0.0	 0.0	 1	 -15.59837	 15.59837;
	41	 42	 0.0	 0.029	 0.0	 1012.0	 1012.0	 1012.0	 0.0	 0.0	 1	 -15.59837	 15.59837;
	41	 49	 0.065	 0.191	 0.02	 146.0	 146.0	 146.0	 0.0	 0.0	 1	 -15.59837	 15.59837;
	41	 51	 0.031	 0.089	 0.036	 312.0	 312.0	 312.0	 0.0	 0.0	 1	 -15.59837	 15.59837;
	42	 46	 0.002	 0.014	 0.806	 2075.0	 2075.0	 2075.0	 0.0	 0.0	 1	 -15.59837	 15.59837;
	43	 44	 0.026	 0.072	 0.035	 384.0	 384.0	 384.0	 0.0	 0.0	 1	 -15.59837	 15.59837;
	43	 48	 0.095	 0.262	 0.032	 106.0	 106.0	 106.0	 0.0	 0.0	 1	 -15.59837	 15.59837;
	43	 53	 0.013	 0.039	 0.016	 714.0	 714.0	 714.0	 0.0	 0.0	 1	 -15.59837	 15.59837;
	44	 47	 0.027	 0.084	 0.039	 333.0	 333.0	 333.0	 0.0	 0.0	 1	 -15.59837	 15.59837;
	44	 54	 0.028	 0.084	 0.037	 332.0	 332.0	 332.0	 0.0	 0.0	 1	 -15.59837	 15.59837;
	45	 60	 0.007	 0.041	 0.312	 706.0	 706.0	 706.0	 0.0	 0.0	 1	 -15.59837	 15.59837;
	45	 74	 0.009	 0.054	 0.411	 536.0	 536.0	 536.0	 0.0	 0.0	 1	 -15.59837	 15.59837;
	46	 81	 0.005	 0.042	 0.69	 694.0	 694.0	 694.0	 0.0	 0.0	 1	 -15.59837	 15.59837;
	47	 73	 0.052	 0.145	 0.073	 191.0	 191.0	 191.0	 0.0	 0.0	 1	 -15.59837	 15.59837;
	47	 113	 0.043	 0.118	 0.013	 234.0	 234.0	 234.0	 0.0	 0.0	 1	 -15.59837	 15.59837;
	48	 107	 0.025	 0.062	 0.007	 439.0	 439.0	 439.0	 0.0	 0.0	 1	 -15.59837	 15.59837;
	49	 51	 0.031	 0.094	 0.043	 297.0	 297.0	 297.0	 0.0	 0.0	 1	 -15.59837	 15.59837;
	51	 52	 0.037	 0.109	 0.049	 255.0	 255.0	 255.0	 0.0	 0.0	 1	 -15.59837	 15.59837;
	52	 55	 0.027	 0.08	 0.036	 348.0	 348.0	 348.0	 0.0	 0.0	 1	 -15.59837	 15.59837;
	53	 54	 0.025	 0.073	 0.035	 381.0	 381.0	 381.0	 0.0	 0.0	 1	 -15.59837	 15.59837;
	54	 55	 0.035	 0.103	 0.047	 270.0	 270.0	 270.0	 0.0	 0.0	 1	 -15.59837	 15.59837;
	55	 57	 0.065	 0.169	 0.082	 162.0	 162.0	 162.0	 0.0	 0.0	 1	 -15.59837	 15.59837;
	57	 58	 0.046	 0.08	 0.036	 318.0	 318.0	 318.0	 0.0	 0.0	 1	 -15.59837	 15.59837;
	57	 63	 0.159	 0.537	 0.071	 53.0	 53.0	 53.0	 0.0	 0.0	 1	 -15.59837	 15.59837;
	58	 59	 0.009	 0.026	 0.005	 1067.0	 1067.0	 1067.0	 0.0	 0.0	 1	 -15.59837	 15.59837;
	59	 61	 0.002	 0.013	 0.015	 2231.0	 2231.0	 2231.0	 0.0	 0.0	 1	 -15.59837	 15.59837;
	60	 62	 0.009	 0.065	 0.485	 447.0	 447.0	 447.0	 0.0	 0.0	 1	 -15.59837	 15.59837;
	62	 64	 0.016	 0.105	 0.203	 277.0	 277.0	 277.0	 0.0	 0.0	 1	 -15.59837	 15.59837;
	62	 144	 0.001	 0.007	 0.013	 4149.0	 4149.0	 4149.0	 0.0	 0.0	 1	 -15.59837	 15.59837;
	63	 526	 0.0265	 0.172	 0.026	 169.0	 169.0	 169.0	 0.0	 0.0	 1	 -15.59837	 15.59837;
	69	 211	 0.051	 0.232	 0.028	 124.0	 124.0	 124.0	 0.0	 0.0	 1	 -15.59837	 15.59837;
	69	 79	 0.051	 0.157	 0.023	 178.0	 178.0	 178.0	 0.0	 0.0	 1	 -15.59837	 15.59837;
	70	 71	 0.032	 0.1	 0.062	 280.0	 280.0	 280.0	 0.0	 0.0	 1	 -15.59837	 15.59837;
	70	 528	 0.02	 0.1234	 0.028	 235.0	 235.0	 235.0	 0.0	 0.0	 1	 -15.59837	 15.59837;
	71	 72	 0.036	 0.131	 0.068	 216.0	 216.0	 216.0	 0.0	 0.0	 1	 -15.59837	 15.59837;
	71	 73	 0.034	 0.099	 0.047	 281.0	 281.0	 281.0	 0.0	 0.0	 1	 -15.59837	 15.59837;
	72	 77	 0.018	 0.087	 0.011	 331.0	 331.0	 331.0	 0.0	 0.0	 1	 -15.59837	 15.59837;
	72	 531	 0.0256	 0.193	 0.0	 151.0	 151.0	 151.0	 0.0	 0.0	 1	 -15.59837	 15.59837;
	73	 76	 0.021	 0.057	 0.03	 483.0	 483.0	 483.0	 0.0	 0.0	 1	 -15.59837	 15.59837;
	73	 79	 0.018	 0.052	 0.018	 534.0	 534.0	 534.0	 0.0	 0.0	 1	 -15.59837	 15.59837;
	74	 88	 0.004	 0.027	 0.05	 1075.0	 1075.0	 1075.0	 0.0	 0.0	 1	 -15.59837	 15.59837;
	74	 562	 0.0286	 0.2013	 0.379	 145.0	 145.0	 145.0	 0.0	 0.0	 1	 -15.59837	 15.59837;
	76	 77	 0.016	 0.043	 0.004	 640.0	 640.0	 640.0	 0.0	 0.0	 1	 -15.59837	 15.59837;
	77	 78	 0.001	 0.006	 0.007	 4823.0	 4823.0	 4823.0	 0.0	 0.0	 1	 -15.59837	 15.59837;
	77	 80	 0.014	 0.07	 0.038	 411.0	 411.0	 411.0	 0.0	 0.0	 1	 -15.59837	 15.59837;
	77	 552	 0.0891	 0.2676	 0.029	 104.0	 104.0	 104.0	 0.0	 0.0	 1	 -15.59837	 15.59837;
	77	 609	 0.0782	 0.2127	 0.022	 130.0	 130.0	 130.0	 0.0	 0.0	 1	 -15.59837	 15.59837;
	78	 79	 0.006	 0.022	 0.011	 1287.0	 1287.0	 1287.0	 0.0	 0.0	 1	 -15.59837	 15.59837;
	78	 84	 0.0	 0.036	 0.0	 815.0	 815.0	 815.0	 0.0	 0.0	 1	 -15.59837	 15.59837;
	79	 211	 0.099	 0.375	 0.051	 76.0	 76.0	 76.0	 0.0	 0.0	 1	 -15.59837	 15.59837;
	80	 211	 0.022	 0.107	 0.058	 269.0	 269.0	 269.0	 0.0	 0.0	 1	 -15.59837	 15.59837;
	81	 194	 0.0035	 0.033	 0.53	 884.0	 884.0	 884.0	 0.0	 0.0	 1	 -15.59837	 15.59837;
	81	 195	 0.0035	 0.033	 0.53	 884.0	 884.0	 884.0	 0.0	 0.0	 1	 -15.59837	 15.59837;
	85	 86	 0.008	 0.064	 0.128	 455.0	 455.0	 455.0	 0.0	 0.0	 1	 -15.59837	 15.59837;
	86	 87	 0.012	 0.093	 0.183	 313.0	 313.0	 313.0	 0.0	 0.0	 1	 -15.59837	 15.59837;
	86	 323	 0.006	 0.048	 0.092	 607.0	 607.0	 607.0	 0.0	 0.0	 1	 -15.59837	 15.59837;
	89	 91	 0.047	 0.119	 0.014	 230.0	 230.0	 230.0	 0.0	 0.0	 1	 -15.59837	 15.59837;
	90	 92	 0.032	 0.174	 0.024	 166.0	 166.0	 166.0	 0.0	 0.0	 1	 -15.59837	 15.59837;
	91	 94	 0.1	 0.253	 0.031	 108.0	 108.0	 108.0	 0.0	 0.0	 1	 -15.59837	 15.59837;
	91	 97	 0.022	 0.077	 0.039	 367.0	 367.0	 367.0	 0.0	 0.0	 1	 -15.59837	 15.59837;
	92	 103	 0.019	 0.144	 0.017	 202.0	 202.0	 202.0	 0.0	 0.0	 1	 -15.59837	 15.59837;
	92	 105	 0.017	 0.092	 0.012	 314.0	 314.0	 314.0	 0.0	 0.0	 1	 -15.59837	 15.59837;
	94	 97	 0.278	 0.427	 0.043	 58.0	 58.0	 58.0	 0.0	 0.0	 1	 -15.59837	 15.59837;
	97	 100	 0.022	 0.053	 0.007	 512.0	 512.0	 512.0	 0.0	 0.0	 1	 -15.59837	 15.59837;
	97	 102	 0.038	 0.092	 0.012	 295.0	 295.0	 295.0	 0.0	 0.0	 1	 -15.59837	 15.59837;
	97	 103	 0.048	 0.122	 0.015	 224.0	 224.0	 224.0	 0.0	 0.0	 1	 -15.59837	 15.59837;
	98	 100	 0.024	 0.064	 0.007	 430.0	 430.0	 430.0	 0.0	 0.0	 1	 -15.59837	 15.59837;
	98	 102	 0.034	 0.121	 0.015	 234.0	 234.0	 234.0	 0.0	 0.0	 1	 -15.59837	 15.59837;
	99	 107	 0.053	 0.135	 0.017	 203.0	 203.0	 203.0	 0.0	 0.0	 1	 -15.59837	 15.59837;
	99	 108	 0.002	 0.004	 0.002	 6559.0	 6559.0	 6559.0	 0.0	 0.0	 1	 -15.59837	 15.59837;
	99	 109	 0.045	 0.354	 0.044	 83.0	 83.0	 83.0	 0.0	 0.0	 1	 -15.59837	 15.59837;
	99	 110	 0.05	 0.174	 0.022	 163.0	 163.0	 163.0	 0.0	 0.0	 1	 -15.59837	 15.59837;
	100	 102	 0.016	 0.038	 0.004	 712.0	 712.0	 712.0	 0.0	 0.0	 1	 -15.59837	 15.59837;
	102	 104	 0.043	 0.064	 0.027	 381.0	 381.0	 381.0	 0.0	 0.0	 1	 -15.59837	 15.59837;
	103	 105	 0.019	 0.062	 0.008	 453.0	 453.0	 453.0	 0.0	 0.0	 1	 -15.59837	 15.59837;
	104	 108	 0.076	 0.13	 0.044	 195.0	 195.0	 195.0	 0.0	 0.0	 1	 -15.59837	 15.59837;
	104	 322	 0.044	 0.124	 0.015	 223.0	 223.0	 223.0	 0.0	 0.0	 1	 -15.59837	 15.59837;
	105	 107	 0.012	 0.088	 0.011	 331.0	 331.0	 331.0	 0.0	 0.0	 1	 -15.59837	 15.59837;
	105	 110	 0.157	 0.4	 0.047	 69.0	 69.0	 69.0	 0.0	 0.0	 1	 -15.59837	 15.59837;
	108	 324	 0.074	 0.208	 0.026	 133.0	 133.0	 133.0	 0.0	 0.0	 1	 -15.59837	 15.59837;
	109	 110	 0.07	 0.184	 0.021	 149.0	 149.0	 149.0	 0.0	 0.0	 1	 -15.59837	 15.59837;
	109	 113	 0.1	 0.274	 0.031	 101.0	 101.0	 101.0	 0.0	 0.0	 1	 -15.59837	 15.59837;
	109	 114	 0.109	 0.393	 0.036	 72.0	 72.0	 72.0	 0.0	 0.0	 1	 -15.59837	 15.59837;
	110	 112	 0.142	 0.404	 0.05	 69.0	 69.0	 69.0	 0.0	 0.0	 1	 -15.59837	 15.59837;
	112	 114	 0.017	 0.042	 0.006	 648.0	 648.0	 648.0	 0.0	 0.0	 1	 -15.59837	 15.59837;
	115	 122	 0.0036	 0.0199	 0.004	 1451.0	 1451.0	 1451.0	 0.0	 0.0	 1	 -15.59837	 15.59837;
	116	 120	 0.002	 0.1049	 0.001	 280.0	 280.0	 280.0	 0.0	 0.0	 1	 -15.59837	 15.59837;
	117	 118	 0.0001	 0.0018	 0.017	 9900.0	 16271.0	 16271.0	 0.0	 0.0	 1	 -15.59837	 15.59837;
	118	 119	 0.0	 0.0271	 0.0	 1083.0	 1083.0	 1083.0	 0.0	 0.0	 1	 -15.59837	 15.59837;
	118	 1201	 0.0	 0.6163	 0.0	 48.0	 48.0	 48.0	 0.0	 0.0	 1	 -15.59837	 15.59837;
	1201	 120	 0.0	 -0.3697	 0.0	 80.0	 80.0	 80.0	 0.0	 0.0	 1	 -15.59837	 15.59837;
	118	 121	 0.0022	 0.2915	 0.0	 101.0	 101.0	 101.0	 0.0	 0.0	 1	 -15.59837	 15.59837;
	119	 120	 0.0	 0.0339	 0.0	 866.0	 866.0	 866.0	 0.0	 0.0	 1	 -15.59837	 15.59837;
	119	 121	 0.0	 0.0582	 0.0	 504.0	 504.0	 504.0	 0.0	 0.0	 1	 -15.59837	 15.59837;
	122	 123	 0.0808	 0.2344	 0.029	 119.0	 119.0	 119.0	 0.0	 0.0	 1	 -15.59837	 15.59837;
	122	 125	 0.0965	 0.3669	 0.054	 78.0	 78.0	 78.0	 0.0	 0.0	 1	 -15.59837	 15.59837;
	123	 124	 0.036	 0.1076	 0.117	 259.0	 259.0	 259.0	 0.0	 0.0	 1	 -15.59837	 15.59837;
	123	 125	 0.0476	 0.1414	 0.149	 197.0	 197.0	 197.0	 0.0	 0.0	 1	 -15.59837	 15.59837;
	125	 126	 0.0006	 0.0197	 0.0	 1489.0	 1489.0	 1489.0	 0.0	 0.0	 1	 -15.59837	 15.59837;
	126	 127	 0.0059	 0.0405	 0.25	 717.0	 717.0	 717.0	 0.0	 0.0	 1	 -15.59837	 15.59837;
	126	 129	 0.0115	 0.1106	 0.185	 264.0	 264.0	 264.0	 0.0	 0.0	 1	 -15.59837	 15.59837;
	126	 132	 0.0198	 0.1688	 0.321	 173.0	 173.0	 173.0	 0.0	 0.0	 1	 -15.59837	 15.59837;
	126	 157	 0.005	 0.05	 0.33	 584.0	 584.0	 584.0	 0.0	 0.0	 1	 -15.59837	 15.59837;
	126	 158	 0.0077	 0.0538	 0.335	 540.0	 540.0	 540.0	 0.0	 0.0	 1	 -15.59837	 15.59837;
	126	 169	 0.0165	 0.1157	 0.171	 251.0	 251.0	 251.0	 0.0	 0.0	 1	 -15.59837	 15.59837;
	127	 128	 0.0059	 0.0577	 0.095	 506.0	 506.0	 506.0	 0.0	 0.0	 1	 -15.59837	 15.59837;
	127	 134	 0.0049	 0.0336	 0.208	 864.0	 864.0	 864.0	 0.0	 0.0	 1	 -15.59837	 15.59837;
	127	 168	 0.0059	 0.0577	 0.095	 506.0	 506.0	 506.0	 0.0	 0.0	 1	 -15.59837	 15.59837;
	128	 130	 0.0078	 0.0773	 0.126	 378.0	 378.0	 378.0	 0.0	 0.0	 1	 -15.59837	 15.59837;
	128	 133	 0.0026	 0.0193	 0.03	 1507.0	 1507.0	 1507.0	 0.0	 0.0	 1	 -15.59837	 15.59837;
	129	 130	 0.0076	 0.0752	 0.122	 389.0	 389.0	 389.0	 0.0	 0.0	 1	 -15.59837	 15.59837;
	129	 133	 0.0021	 0.0186	 0.03	 1568.0	 1568.0	 1568.0	 0.0	 0.0	 1	 -15.59837	 15.59837;
...
];

% INFO    : === Translation Options ===
% INFO    : Phase Angle Bound:           15.59837 (deg.)
% INFO    : 
% INFO    : === Writing Matpower Case File Notes ===
